*HEADING
cubit(d/github/WCHEN_STEPS/test/validation_mpi/meshes/3tets.inp): 01/29/2015: 11
version: 14.0
**
********************************** P A R T S **********************************
*PART, NAME=Part-Default
**
********************************** N O D E S **********************************
*NODE, NSET=ALLNODES
       1,    5.000000e-01,   -8.660254e-01,    5.000000e-01
       2,    5.000000e-01,    8.660254e-01,    5.000000e-01
       3,   -1.000000e+00,    1.224647e-16,   -5.000000e-01
       4,   -1.000000e+00,    1.224647e-16,    5.000000e-01
       5,    5.000000e-01,   -8.660254e-01,   -5.000000e-01
       6,    5.000000e-01,    8.660254e-01,   -5.000000e-01
**
********************************** E L E M E N T S ****************************
*ELEMENT, TYPE=C3D4, ELSET=EB4
       2,       6,       5,       2,       3
*ELEMENT, TYPE=C3D4, ELSET=EB5
       3,       2,       5,       1,       3
*ELEMENT, TYPE=C3D4, ELSET=EB1
       1,       1,       4,       2,       3
**
********************************** P R O P E R T I E S ************************
*SOLID SECTION, ELSET=EB4, MATERIAL=Default-Steel
*SOLID SECTION, ELSET=EB5, MATERIAL=Default-Steel
*SOLID SECTION, ELSET=EB1, MATERIAL=Default-Steel
**
*END PART
**
**
**
********************************** E N D   P A R T S **********************************
**
**
********************************** A S S E M B L Y ************************************
**
*ASSEMBLY, NAME=ASSEMBLY1
**
*INSTANCE, NAME=Part-Default_1, PART=Part-Default
*END INSTANCE
**
*END ASSEMBLY
**
**
**
*MATERIAL, NAME = Default-Steel
*ELASTIC, TYPE=ISOTROPIC
2.068000e+05, 2.900000e-01
*DENSITY
7.000000e-06
*CONDUCTIVITY,TYPE=ISO
4.500000e-02
*SPECIFIC HEAT
5.000000e+02
**
**
************************************** H I S T O R Y *************************************
**s
*PREPRINT
**
**************************************** S T E P 1 ***************************************
*STEP,INC=100,NAME=Default Set
**
*STATIC
1, 1, 1e-05, 1
**
**
**
**
*END STEP
