*HEADING
cubit(ation/vesicles/validations/meshes/sphere_0.5D_291tets.inp): 11/28/2023: 11
version: 2022.4
**
********************************** P A R T S **********************************
*PART, NAME=Part-Default
**
********************************** N O D E S **********************************
*NODE, NSET=ALLNODES
1, 2.1829150375112003, 3.9400139562497007, 0.29507576363839005
2, 2.1683673634517, 3.9506466755659, 0.36642434792760004
3, 2.2208678750699002, 3.9855632008529, 0.34158904009734004
4, 2.1985515072219, 3.9957354534288005, 0.29462952084728
5, 1.6461622729925, 4.0610699649903, 0.36209748541127
6, 1.6822842457372003, 4.0513567447439005, 0.40939042002910003
7, 1.6454933709035, 4.0954415633641, 0.39655006305796003
8, 1.6344796801613, 4.0366075622616, 0.39404367333037
9, 1.9678804854765002, 4.287210827237099, 0.5382517720723
10, 1.9017448971405, 4.293328870401001, 0.49161353692097
11, 1.9360453107551003, 4.248455438495601, 0.50734399066364
12, 1.9222344232439001, 4.257578694414301, 0.56359002188047
13, 2.2119971335176, 3.6582060188879, 0.20514870021449
14, 2.2042519195722003, 3.6328391684213006, 0.25389439303997
15, 2.1577691949117996, 3.6708667479805, 0.25065323778112
16, 2.1519961420172, 3.6217096237308004, 0.21648461793523002
17, 1.7971604938305, 4.5893260255267, 0.43970634663335
18, 1.7490948582354, 4.641133665614801, 0.40406711441696
19, 1.8014649278004, 4.635861811571901, 0.46240406042941
20, 1.7974956983833, 4.655711731989999, 0.39947676497466006
** ... 4466 like lines cut
**
********************************** E L E M E N T S ****************************
*ELEMENT, TYPE=C3D4, ELSET=EB1
1, 1, 2, 3, 4
2, 5, 6, 7, 8
3, 9, 10, 11, 12
4, 13, 14, 15, 16
5, 17, 18, 19, 20
6, 21, 22, 23, 24
7, 25, 26, 27, 28
8, 29, 30, 31, 32
9, 33, 34, 35, 36
10, 37, 30, 38, 39
11, 40, 41, 42, 43
12, 44, 45, 46, 47
13, 48, 49, 50, 51
14, 52, 53, 54, 55
15, 56, 57, 58, 59
16, 60, 61, 62, 63
17, 64, 65, 66, 67
18, 68, 69, 70, 71
19, 72, 73, 74, 75
20, 76, 77, 78, 79
** ... 17452 like lines cut
**
********************************** P R O P E R T I E S ************************
*SOLID SECTION, ELSET=EB1, MATERIAL=Default-Steel
**
*END PART
**
**
**
********************************** E N D   P A R T S **********************************
**
**
********************************** A S S E M B L Y ************************************
**
*ASSEMBLY, NAME=ASSEMBLY1
**
*INSTANCE, NAME=Part-Default_1, PART=Part-Default
*END INSTANCE
**
*END ASSEMBLY
**
**
**
*MATERIAL, NAME = Default-Steel
*ELASTIC, TYPE=ISOTROPIC
2.068000e+05, 2.900000e-01
*DENSITY
7.000000e-06
*CONDUCTIVITY,TYPE=ISO
4.500000e-02
*SPECIFIC HEAT
5.000000e+02
**
**
************************************** H I S T O R Y *************************************
**
*PREPRINT
**
**************************************** S T E P 1 ***************************************
*STEP,INC=100,NAME=Default Set
**
*STATIC
1, 1, 1e-05, 1
**
**
**
**
*END STEP
