*HEADING
cubit(ion/vesicles/validations/meshes/sphere_0.5D_41643tets.inp): 11/28/2023: 11
version: 2022.4
**
********************************** P A R T S **********************************
*PART, NAME=Part-Default
**
********************************** N O D E S **********************************
*NODE, NSET=ALLNODES
    3513,   -6.123234e-17,   -7.498799e-33,   -1.000000e+00
    3514,   -6.123234e-17,   -7.498799e-33,    1.000000e+00
    3515,   -1.011683e-01,   -1.238955e-17,   -9.948693e-01
    3516,   -2.012985e-01,   -2.465196e-17,   -9.795299e-01
    3517,   -2.993631e-01,   -3.666141e-17,   -9.541393e-01
    3518,   -3.943559e-01,   -4.829466e-17,   -9.189578e-01
    3519,   -4.853020e-01,   -5.943235e-17,   -8.743466e-01
    3520,   -5.712682e-01,   -6.996018e-17,   -8.207634e-01
    3521,   -6.513725e-01,   -7.977012e-17,   -7.587581e-01
    3522,   -7.247928e-01,   -8.876152e-17,   -6.889669e-01
    3523,   -7.907757e-01,   -9.684210e-17,   -6.121060e-01
    3524,   -8.486443e-01,   -1.039289e-16,   -5.289640e-01
    3525,   -8.978045e-01,   -1.099493e-16,   -4.403942e-01
    3526,   -9.377521e-01,   -1.148415e-16,   -3.473053e-01
    3527,   -9.680771e-01,   -1.185553e-16,   -2.506525e-01
    3528,   -9.884683e-01,   -1.210525e-16,   -1.514278e-01
    3529,   -9.987165e-01,   -1.223075e-16,   -5.064917e-02
    3530,   -9.987165e-01,   -1.223075e-16,    5.064917e-02
    3531,   -9.884683e-01,   -1.210525e-16,    1.514278e-01
    3532,   -9.680771e-01,   -1.185553e-16,    2.506525e-01
** ... 7662 like lines cut
**
********************************** E L E M E N T S ****************************
*ELEMENT, TYPE=C3D4, ELSET=EB1
       1,    4984,    4985,    4986,    4987
       2,    4988,    4989,    4990,    4991
       3,    4991,    4993,    4992,    4994
       4,    4989,    4990,    4991,    4995
       5,    4991,    4992,    4993,    4995
       6,    4996,    4997,    4998,    4999
       7,    5000,    5001,    5002,    5003
       8,    4992,    4999,    5004,    5005
       9,    4992,    5005,    5006,    5007
      10,    4992,    4999,    5005,    5007
      11,    4999,    5007,    5008,    5009
      12,    4997,    4998,    4999,    5010
      13,    4996,    4997,    4999,    5005
      14,    5011,    5012,    5013,    5014
      15,    5015,    5016,    5017,    5018
      16,    5018,    5020,    5019,    5021
      17,    5018,    5019,    5020,    5022
      18,    5012,    5018,    5019,    5023
      19,    5016,    5020,    5018,    5021
      20,    5018,    5022,    5020,    5024
** ... 41623 like lines cut
**
********************************** P R O P E R T I E S ************************
*SOLID SECTION, ELSET=EB1, MATERIAL=Default-Steel
**
*END PART
**
**
**
********************************** E N D   P A R T S **********************************
**
**
********************************** A S S E M B L Y ************************************
**
*ASSEMBLY, NAME=ASSEMBLY1
**
*INSTANCE, NAME=Part-Default_1, PART=Part-Default
*END INSTANCE
**
*END ASSEMBLY
**
**
**
*MATERIAL, NAME = Default-Steel
*ELASTIC, TYPE=ISOTROPIC
2.068000e+05, 2.900000e-01
*DENSITY
7.000000e-06
*CONDUCTIVITY,TYPE=ISO
4.500000e-02
*SPECIFIC HEAT
5.000000e+02
**
**
************************************** H I S T O R Y *************************************
**
*PREPRINT
**
**************************************** S T E P 1 ***************************************
*STEP,INC=100,NAME=Default Set
**
*STATIC
1, 1, 1e-05, 1
**
**
**
**
*END STEP
