*HEADING
cubit(tion/vesicles/validations/meshes/sphere_0.5D_3414tets.inp): 11/28/2023: 11
version: 2022.4
**
********************************** P A R T S **********************************
*PART, NAME=Part-Default
**
********************************** N O D E S **********************************
*NODE, NSET=ALLNODES
     497,   -6.123234e-17,   -7.498799e-33,   -1.000000e+00
     498,   -6.123234e-17,   -7.498799e-33,    1.000000e+00
     499,   -2.393157e-01,   -2.930772e-17,   -9.709418e-01
     500,   -4.647232e-01,   -5.691217e-17,   -8.854560e-01
     501,   -6.631227e-01,   -8.120910e-17,   -7.485107e-01
     502,   -8.229839e-01,   -1.007865e-16,   -5.680647e-01
     503,   -9.350162e-01,   -1.145065e-16,   -3.546049e-01
     504,   -9.927089e-01,   -1.215718e-16,   -1.205367e-01
     505,   -9.927089e-01,   -1.215718e-16,    1.205367e-01
     506,   -9.350162e-01,   -1.145065e-16,    3.546049e-01
     507,   -8.229839e-01,   -1.007865e-16,    5.680647e-01
     508,   -6.631227e-01,   -8.120910e-17,    7.485107e-01
     509,   -4.647232e-01,   -5.691217e-17,    8.854560e-01
     510,   -2.393157e-01,   -2.930772e-17,    9.709418e-01
     511,    1.603920e-01,    1.975241e-04,   -9.870534e-01
     512,   -7.383248e-02,   -1.916319e-01,   -9.786859e-01
     513,   -7.536681e-02,   -1.902399e-01,    9.788404e-01
     514,    1.614150e-01,    1.362248e-04,    9.868866e-01
     515,   -7.400895e-02,    1.907129e-01,   -9.788520e-01
     516,   -3.337043e-01,    2.023068e-01,   -9.207135e-01
** ... 701 like lines cut
**
********************************** E L E M E N T S ****************************
*ELEMENT, TYPE=C3D4, ELSET=EB1
       1,     770,     771,     772,     773
       2,     773,     775,     774,     776
       3,     773,     777,     774,     778
       4,     771,     772,     773,     778
       5,     770,     773,     777,     779
       6,     773,     778,     775,     780
       7,     781,     782,     783,     784
       8,     784,     786,     785,     787
       9,     788,     789,     790,     791
      10,     784,     792,     787,     793
      11,     771,     784,     787,     793
      12,     784,     787,     785,     794
      13,     781,     782,     784,     794
      14,     784,     786,     792,     795
      15,     771,     772,     793,     796
      16,     772,     793,     796,     797
      17,     793,     796,     798,     799
      18,     792,     800,     801,     802
      19,     784,     802,     793,     803
      20,     800,     804,     802,     805
** ... 3394 like lines cut
**
********************************** P R O P E R T I E S ************************
*SOLID SECTION, ELSET=EB1, MATERIAL=Default-Steel
**
*END PART
**
**
**
********************************** E N D   P A R T S **********************************
**
**
********************************** A S S E M B L Y ************************************
**
*ASSEMBLY, NAME=ASSEMBLY1
**
*INSTANCE, NAME=Part-Default_1, PART=Part-Default
*END INSTANCE
**
*END ASSEMBLY
**
**
**
*MATERIAL, NAME = Default-Steel
*ELASTIC, TYPE=ISOTROPIC
2.068000e+05, 2.900000e-01
*DENSITY
7.000000e-06
*CONDUCTIVITY,TYPE=ISO
4.500000e-02
*SPECIFIC HEAT
5.000000e+02
**
**
************************************** H I S T O R Y *************************************
**
*PREPRINT
**
**************************************** S T E P 1 ***************************************
*STEP,INC=100,NAME=Default Set
**
*STATIC
1, 1, 1e-05, 1
**
**
**
**
*END STEP
