*HEADING
cubit(/iain/Dropbox (OIST)/Anna/meshes/sphere_0.5r_2088tets.inp): 08/03/2017: 14
version: 13.0
**
********************************** P A R T S **********************************
*PART, NAME=Part-Default
**
********************************** N O D E S **********************************
*NODE, NSET=ALLNODES
       1,   -1.530808e-17,   -1.874700e-33,    2.500000e-01
       2,   -6.476980e-02,   -7.932013e-18,    2.414640e-01
       3,   -3.238490e-02,   -5.609229e-02,    2.414640e-01
       4,    3.238490e-02,   -5.609229e-02,    2.414640e-01
       5,    6.476980e-02,   -2.876357e-17,    2.414640e-01
       6,    3.238490e-02,    5.609229e-02,    2.414640e-01
       7,   -3.238490e-02,    5.609229e-02,    2.414640e-01
       8,   -1.530808e-17,   -1.874700e-33,   -2.500000e-01
       9,   -6.476980e-02,   -7.932013e-18,   -2.414640e-01
      10,   -3.238490e-02,   -5.609229e-02,   -2.414640e-01
      11,    3.238490e-02,   -5.609229e-02,   -2.414640e-01
      12,    6.476980e-02,   -2.876357e-17,   -2.414640e-01
      13,    3.238490e-02,    5.609229e-02,   -2.414640e-01
      14,   -3.238490e-02,    5.609229e-02,   -2.414640e-01
      15,   -2.165285e-01,    1.249058e-01,    3.735415e-03
      16,   -2.492011e-01,   -1.986142e-02,   -2.082534e-03
      17,   -1.077275e-01,    2.255418e-01,   -5.068817e-03
      18,    3.086243e-02,    2.464233e-01,   -2.868954e-02
      19,   -4.627996e-02,    2.432136e-01,   -3.471768e-02
      20,    2.399219e-01,    6.465046e-02,   -2.752788e-02
** ... 449 like lines cut
**
********************************** E L E M E N T S ****************************
*ELEMENT, TYPE=C3D4, ELSET=EB1
       1,     218,     219,     220,     221
       2,     218,     220,     219,     222
       3,     144,     222,     218,     223
       4,     184,     144,     218,     223
       5,     201,     184,     218,     223
       6,     184,     143,     144,     223
       7,     201,     165,     184,     223
       8,     165,     119,     223,     224
       9,     219,     223,     222,     225
      10,      89,      36,      37,     226
      11,     227,     228,     229,     230
      12,     227,     228,     231,     232
      13,      77,      63,      20,     233
      14,     227,     229,     228,     234
      15,     235,     236,     237,     238
      16,     235,     237,     236,     239
      17,     235,     240,     236,     241
      18,     235,     236,     238,     241
      19,     235,     238,     242,     243
      20,     235,     238,     243,     244
** ... 2068 like lines cut
**
********************************** P R O P E R T I E S ************************
*SOLID SECTION, ELSET=EB1, MATERIAL=Default-Steel
**
*END PART
**
**
**
********************************** E N D   P A R T S **********************************
**
**
********************************** A S S E M B L Y ************************************
**
*ASSEMBLY, NAME=ASSEMBLY1
**
*INSTANCE, NAME=Part-Default_1, PART=Part-Default
*END INSTANCE
**
*END ASSEMBLY
**
**
**
*MATERIAL, NAME = Default-Steel
*ELASTIC, TYPE=ISOTROPIC
2.068000e+05, 2.900000e-01
*DENSITY
7.000000e-06
*CONDUCTIVITY,TYPE=ISO
4.500000e-02
*SPECIFIC HEAT
5.000000e+02
**
**
************************************** H I S T O R Y *************************************
**
*PREPRINT
**
**************************************** S T E P 1 ***************************************
*STEP,INC=100,NAME=Default Set
**
*STATIC
1, 1, 1e-05, 1
**
**
**
**
*END STEP
