*HEADING
cubit(rface_diffusion_on_spheres/meshes/sphere_rad1_64ktets.inp): 11/30/2017: 11
version: 13.0
**
********************************** P A R T S **********************************
*PART, NAME=Part-Default
**
********************************** N O D E S **********************************
*NODE, NSET=ALLNODES
       1,   -6.123234e-17,   -7.498799e-33,    1.000000e+00
       2,   -7.023419e-02,   -8.601207e-18,    9.975305e-01
       3,   -3.511709e-02,   -6.082459e-02,    9.975305e-01
       4,    3.511709e-02,   -6.082459e-02,    9.975305e-01
       5,    7.023419e-02,   -3.119024e-17,    9.975305e-01
       6,    3.511709e-02,    6.082459e-02,    9.975305e-01
       7,   -3.511709e-02,    6.082459e-02,    9.975305e-01
       8,   -6.123234e-17,   -7.498799e-33,   -1.000000e+00
       9,   -7.023419e-02,   -8.601207e-18,   -9.975305e-01
      10,   -3.511709e-02,   -6.082459e-02,   -9.975305e-01
      11,    3.511709e-02,   -6.082459e-02,   -9.975305e-01
      12,    7.023419e-02,   -3.119024e-17,   -9.975305e-01
      13,    3.511709e-02,    6.082459e-02,   -9.975305e-01
      14,   -3.511709e-02,    6.082459e-02,   -9.975305e-01
      15,    8.282510e-01,    5.595149e-01,   -3.071477e-02
      16,    8.986796e-01,   -4.375289e-01,   -3.071479e-02
      17,    7.042869e-02,   -9.970438e-01,   -3.071479e-02
      18,   -8.315238e-01,   -5.550869e-01,   -2.113453e-02
      19,   -8.783869e-01,    4.756852e-01,   -4.647680e-02
      20,   -9.068860e-01,    4.197820e-01,   -3.661793e-02
** ... 12254 like lines cut
**
********************************** E L E M E N T S ****************************
*ELEMENT, TYPE=C3D4, ELSET=EB1
       1,    3033,    3034,    3035,    3036
       2,    3037,    3038,    3039,    3040
       3,    3037,    3041,    3039,    3042
       4,    3037,    3041,    3042,    3043
       5,    3033,    3042,    3037,    3044
       6,    3033,    3037,    3038,    3044
       7,    3045,    3046,    3047,    3048
       8,    3045,    3047,    3046,    3049
       9,    3045,    3050,    3051,    3052
      10,    3045,    3049,    3050,    3053
      11,    3045,    3048,    3047,    3054
      12,    3045,    3053,    3048,    3054
      13,    3045,    3046,    3048,    3055
      14,    3046,    3056,    3057,    3058
      15,    3057,    3058,    3056,    3059
      16,    3057,    3059,    3056,    3060
      17,    3057,    3058,    3059,    3061
      18,    3046,    3058,    3057,    3062
      19,    1063,     871,     872,    3063
      20,    3039,    3046,    3057,    3064
** ... 64656 like lines cut
**
********************************** P R O P E R T I E S ************************
*SOLID SECTION, ELSET=EB1, MATERIAL=Default-Steel
**
*END PART
**
**
**
********************************** E N D   P A R T S **********************************
**
**
********************************** A S S E M B L Y ************************************
**
*ASSEMBLY, NAME=ASSEMBLY1
**
*INSTANCE, NAME=Part-Default_1, PART=Part-Default
*END INSTANCE
**
*END ASSEMBLY
**
**
**
*MATERIAL, NAME = Default-Steel
*ELASTIC, TYPE=ISOTROPIC
2.068000e+05, 2.900000e-01
*DENSITY
7.000000e-06
*CONDUCTIVITY,TYPE=ISO
4.500000e-02
*SPECIFIC HEAT
5.000000e+02
**
**
************************************** H I S T O R Y *************************************
**
*PREPRINT
**
**************************************** S T E P 1 ***************************************
*STEP,INC=100,NAME=Default Set
**
*STATIC
1, 1, 1e-05, 1
**
**
**
**
*END STEP
