*HEADING
cubit(ion/vesicles/validations/meshes/sphere_0.5D_11773tets.inp): 11/28/2023: 11
version: 2022.4
**
********************************** P A R T S **********************************
*PART, NAME=Part-Default
**
********************************** N O D E S **********************************
*NODE, NSET=ALLNODES
    1218,   -6.123234e-17,   -7.498799e-33,   -1.000000e+00
    1219,   -6.123234e-17,   -7.498799e-33,    1.000000e+00
    1220,   -1.564345e-01,   -1.915770e-17,   -9.876883e-01
    1221,   -3.090170e-01,   -3.784367e-17,   -9.510565e-01
    1222,   -4.539905e-01,   -5.559780e-17,   -8.910065e-01
    1223,   -5.877853e-01,   -7.198293e-17,   -8.090170e-01
    1224,   -7.071068e-01,   -8.659561e-17,   -7.071068e-01
    1225,   -8.090170e-01,   -9.907601e-17,   -5.877853e-01
    1226,   -8.910065e-01,   -1.091168e-16,   -4.539905e-01
    1227,   -9.510565e-01,   -1.164708e-16,   -3.090170e-01
    1228,   -9.876883e-01,   -1.209569e-16,   -1.564345e-01
    1229,   -1.000000e+00,   -1.224647e-16,    1.953993e-14
    1230,   -9.876883e-01,   -1.209569e-16,    1.564345e-01
    1231,   -9.510565e-01,   -1.164708e-16,    3.090170e-01
    1232,   -8.910065e-01,   -1.091168e-16,    4.539905e-01
    1233,   -8.090170e-01,   -9.907601e-17,    5.877853e-01
    1234,   -7.071068e-01,   -8.659561e-17,    7.071068e-01
    1235,   -5.877853e-01,   -7.198293e-17,    8.090170e-01
    1236,   -4.539905e-01,   -5.559780e-17,    8.910065e-01
    1237,   -3.090170e-01,   -3.784367e-17,    9.510565e-01
** ... 2275 like lines cut
**
********************************** E L E M E N T S ****************************
*ELEMENT, TYPE=C3D4, ELSET=EB1
       1,    1852,    1853,    1854,    1855
       2,    1852,    1855,    1854,    1856
       3,    1855,    1857,    1856,    1858
       4,    1853,    1855,    1858,    1859
       5,    1853,    1855,    1860,    1861
       6,    1862,    1863,    1864,    1865
       7,    1864,    1866,    1865,    1867
       8,    1863,    1867,    1865,    1868
       9,    1865,    1870,    1869,    1871
      10,    1865,    1867,    1869,    1870
      11,    1865,    1868,    1867,    1870
      12,    1867,    1870,    1868,    1872
      13,    1873,    1874,    1875,    1876
      14,    1875,    1877,    1876,    1878
      15,    1381,    1430,    1429,    1879
      16,    1876,    1881,    1880,    1882
      17,    1874,    1875,    1876,    1883
      18,    1870,    1885,    1884,    1886
      19,    1870,    1886,    1887,    1888
      20,    1889,    1890,    1891,    1892
** ... 11753 like lines cut
**
********************************** P R O P E R T I E S ************************
*SOLID SECTION, ELSET=EB1, MATERIAL=Default-Steel
**
*END PART
**
**
**
********************************** E N D   P A R T S **********************************
**
**
********************************** A S S E M B L Y ************************************
**
*ASSEMBLY, NAME=ASSEMBLY1
**
*INSTANCE, NAME=Part-Default_1, PART=Part-Default
*END INSTANCE
**
*END ASSEMBLY
**
**
**
*MATERIAL, NAME = Default-Steel
*ELASTIC, TYPE=ISOTROPIC
2.068000e+05, 2.900000e-01
*DENSITY
7.000000e-06
*CONDUCTIVITY,TYPE=ISO
4.500000e-02
*SPECIFIC HEAT
5.000000e+02
**
**
************************************** H I S T O R Y *************************************
**
*PREPRINT
**
**************************************** S T E P 1 ***************************************
*STEP,INC=100,NAME=Default Set
**
*STATIC
1, 1, 1e-05, 1
**
**
**
**
*END STEP
