*HEADING
cubit(s/iain/Dropbox (OIST)/Anna/meshes/sphere_0.5r_577tets.inp): 08/03/2017: 15
version: 13.0
**
********************************** P A R T S **********************************
*PART, NAME=Part-Default
**
********************************** N O D E S **********************************
*NODE, NSET=ALLNODES
     470,   -1.530808e-17,   -1.874700e-33,    2.500000e-01
     471,   -9.744934e-02,   -1.193410e-17,    2.302252e-01
     472,   -4.872467e-02,   -8.439360e-02,    2.302252e-01
     473,    4.872467e-02,   -8.439360e-02,    2.302252e-01
     474,    9.744934e-02,   -4.327620e-17,    2.302252e-01
     475,    4.872467e-02,    8.439360e-02,    2.302252e-01
     476,   -4.872467e-02,    8.439360e-02,    2.302252e-01
     477,   -1.530808e-17,   -1.874700e-33,   -2.500000e-01
     478,   -9.744934e-02,   -1.193410e-17,   -2.302252e-01
     479,   -4.872467e-02,   -8.439360e-02,   -2.302252e-01
     480,    4.872467e-02,   -8.439360e-02,   -2.302252e-01
     481,    9.744934e-02,   -4.327620e-17,   -2.302252e-01
     482,    4.872467e-02,    8.439360e-02,   -2.302252e-01
     483,   -4.872467e-02,    8.439360e-02,   -2.302252e-01
     484,   -2.478891e-01,   -1.803207e-02,   -2.694173e-02
     485,   -1.143191e-01,    2.222353e-01,    6.530158e-03
     486,   -1.760816e-02,    2.446779e-01,   -4.819416e-02
     487,    2.184808e-01,    1.141673e-01,   -4.161676e-02
     488,    1.620970e-01,    1.889333e-01,   -2.299476e-02
     489,    2.070430e-01,   -1.338060e-01,   -4.158298e-02
** ... 130 like lines cut
**
********************************** E L E M E N T S ****************************
*ELEMENT, TYPE=C3D4, ELSET=EB1
    2089,     515,     558,     498,     559
    2090,     558,     560,     561,     562
    2091,     491,     563,     558,     564
    2092,     558,     561,     560,     565
    2093,     558,     563,     561,     564
    2094,     558,     559,     562,     563
    2095,     566,     567,     568,     569
    2096,     566,     568,     570,     571
    2097,     566,     568,     571,     572
    2098,     566,     573,     574,     575
    2099,     485,     576,     577,     578
    2100,     505,     576,     486,     579
    2101,     486,     485,     573,     576
    2102,     575,     579,     576,     580
    2103,     511,     494,     563,     581
    2104,     499,     559,     498,     563
    2105,     558,     564,     561,     565
    2106,     511,     563,     491,     564
    2107,     524,     494,     511,     581
    2108,     528,     559,     499,     582
** ... 557 like lines cut
**
********************************** P R O P E R T I E S ************************
*SOLID SECTION, ELSET=EB1, MATERIAL=Default-Steel
**
*END PART
**
**
**
********************************** E N D   P A R T S **********************************
**
**
********************************** A S S E M B L Y ************************************
**
*ASSEMBLY, NAME=ASSEMBLY1
**
*INSTANCE, NAME=Part-Default_1, PART=Part-Default
*END INSTANCE
**
*END ASSEMBLY
**
**
**
*MATERIAL, NAME = Default-Steel
*ELASTIC, TYPE=ISOTROPIC
2.068000e+05, 2.900000e-01
*DENSITY
7.000000e-06
*CONDUCTIVITY,TYPE=ISO
4.500000e-02
*SPECIFIC HEAT
5.000000e+02
**
**
************************************** H I S T O R Y *************************************
**
*PREPRINT
**
**************************************** S T E P 1 ***************************************
*STEP,INC=100,NAME=Default Set
**
*STATIC
1, 1, 1e-05, 1
**
**
**
**
*END STEP
