*HEADING
cubit(ation/vesicles/validations/meshes/sphere_0.5D_291tets.inp): 11/28/2023: 11
version: 2022.4
**
********************************** P A R T S **********************************
*PART, NAME=Part-Default
**
********************************** N O D E S **********************************
*NODE, NSET=ALLNODES
       1,   -6.123234e-17,   -7.498799e-33,   -1.000000e+00
       2,   -6.123234e-17,   -7.498799e-33,    1.000000e+00
       3,   -5.000000e-01,   -6.123234e-17,   -8.660254e-01
       4,   -8.660254e-01,   -1.060575e-16,   -5.000000e-01
       5,   -1.000000e+00,   -1.224647e-16,   -2.264856e-14
       6,   -8.660254e-01,   -1.060575e-16,    5.000000e-01
       7,   -5.000000e-01,   -6.123234e-17,    8.660254e-01
       8,   -8.665743e-01,   -4.369609e-01,   -2.410689e-01
       9,   -8.665743e-01,    4.369609e-01,   -2.410689e-01
      10,   -8.665743e-01,    4.369609e-01,    2.410689e-01
      11,   -6.290304e-01,   -4.311066e-01,   -6.468909e-01
      12,   -6.290304e-01,    4.311066e-01,   -6.468909e-01
      13,   -8.665743e-01,   -4.369609e-01,    2.410689e-01
      14,   -6.290304e-01,   -4.311066e-01,    6.468909e-01
      15,   -6.290304e-01,    4.311066e-01,    6.468909e-01
      16,   -5.120444e-01,   -7.896531e-01,    3.380213e-01
      17,   -5.119268e-01,    7.938335e-01,    3.282672e-01
      18,   -6.181452e-01,    7.860639e-01,    1.085814e-04
      19,   -5.118353e-01,    7.899798e-01,   -3.375746e-01
      20,   -6.180391e-01,   -7.861471e-01,    5.925772e-04
** ... 64 like lines cut
**
********************************** E L E M E N T S ****************************
*ELEMENT, TYPE=C3D4, ELSET=EB1
       1,      57,      58,      59,      60
       2,      58,      60,      61,      62
       3,      59,      63,      60,      64
       4,      45,      65,      64,      66
       5,      60,      64,      65,      66
       6,      59,      68,      67,      69
       7,      67,      70,      69,      71
       8,      60,      63,      61,      64
       9,      59,      63,      64,      72
      10,      57,      63,      59,      73
      11,      59,      74,      73,      75
      12,      60,      66,      70,      72
      13,      67,      69,      68,      71
      14,      60,      62,      76,      77
      15,      66,      69,      70,      78
      16,      60,      77,      66,      79
      17,      69,      80,      71,      81
      18,      69,      77,      71,      78
      19,      30,      71,      33,      80
      20,      28,      68,      74,      80
** ... 271 like lines cut
**
********************************** P R O P E R T I E S ************************
*SOLID SECTION, ELSET=EB1, MATERIAL=Default-Steel
**
*END PART
**
**
**
********************************** E N D   P A R T S **********************************
**
**
********************************** A S S E M B L Y ************************************
**
*ASSEMBLY, NAME=ASSEMBLY1
**
*INSTANCE, NAME=Part-Default_1, PART=Part-Default
*END INSTANCE
**
*END ASSEMBLY
**
**
**
*MATERIAL, NAME = Default-Steel
*ELASTIC, TYPE=ISOTROPIC
2.068000e+05, 2.900000e-01
*DENSITY
7.000000e-06
*CONDUCTIVITY,TYPE=ISO
4.500000e-02
*SPECIFIC HEAT
5.000000e+02
**
**
************************************** H I S T O R Y *************************************
**
*PREPRINT
**
**************************************** S T E P 1 ***************************************
*STEP,INC=100,NAME=Default Set
**
*STATIC
1, 1, 1e-05, 1
**
**
**
**
*END STEP
