*HEADING
cubit(ation/vesicles/validations/meshes/sphere_0.5D_991tets.inp): 11/28/2023: 11
version: 2022.4
**
********************************** P A R T S **********************************
*PART, NAME=Part-Default
**
********************************** N O D E S **********************************
*NODE, NSET=ALLNODES
     258,   -6.123234e-17,   -7.498799e-33,   -1.000000e+00
     259,   -6.123234e-17,   -7.498799e-33,    1.000000e+00
     260,   -3.420201e-01,   -4.188539e-17,   -9.396926e-01
     261,   -6.427876e-01,   -7.871878e-17,   -7.660444e-01
     262,   -8.660254e-01,   -1.060575e-16,   -5.000000e-01
     263,   -9.848078e-01,   -1.206042e-16,   -1.736482e-01
     264,   -9.848078e-01,   -1.206042e-16,    1.736482e-01
     265,   -8.660254e-01,   -1.060575e-16,    5.000000e-01
     266,   -6.427876e-01,   -7.871878e-17,    7.660444e-01
     267,   -3.420201e-01,   -4.188539e-17,    9.396926e-01
     268,    2.394339e-01,    4.790359e-05,   -9.709127e-01
     269,   -9.973400e-02,   -2.992839e-01,   -9.489375e-01
     270,   -1.015544e-01,   -2.985634e-01,    9.489713e-01
     271,    2.396292e-01,   -2.222548e-04,    9.708645e-01
     272,   -9.973307e-02,    2.993159e-01,   -9.489275e-01
     273,   -4.666706e-01,    2.967186e-01,   -8.331726e-01
     274,   -7.271336e-01,    2.999053e-01,   -6.175221e-01
     275,   -9.532555e-01,   -3.021653e-01,    1.953993e-14
     276,   -9.532555e-01,    3.021653e-01,    1.953993e-14
     277,   -7.271336e-01,   -2.999053e-01,    6.175221e-01
** ... 219 like lines cut
**
********************************** E L E M E N T S ****************************
*ELEMENT, TYPE=C3D4, ELSET=EB1
       1,     384,     385,     386,     387
       2,     387,     388,     389,     390
       3,     390,     392,     391,     393
       4,     390,     392,     393,     394
       5,     389,     390,     395,     396
       6,     343,     397,     398,     399
       7,     389,     390,     394,     400
       8,     401,     402,     403,     404
       9,     404,     406,     405,     407
      10,     385,     404,     391,     406
      11,     385,     401,     403,     404
      12,     402,     403,     404,     405
      13,     408,     409,     410,     411
      14,     397,     411,     410,     412
      15,     409,     410,     411,     412
      16,     387,     411,     413,     414
      17,     408,     413,     411,     414
      18,     387,     413,     411,     415
      19,     397,     400,     411,     415
      20,     387,     400,     411,     414
** ... 971 like lines cut
**
********************************** P R O P E R T I E S ************************
*SOLID SECTION, ELSET=EB1, MATERIAL=Default-Steel
**
*END PART
**
**
**
********************************** E N D   P A R T S **********************************
**
**
********************************** A S S E M B L Y ************************************
**
*ASSEMBLY, NAME=ASSEMBLY1
**
*INSTANCE, NAME=Part-Default_1, PART=Part-Default
*END INSTANCE
**
*END ASSEMBLY
**
**
**
*MATERIAL, NAME = Default-Steel
*ELASTIC, TYPE=ISOTROPIC
2.068000e+05, 2.900000e-01
*DENSITY
7.000000e-06
*CONDUCTIVITY,TYPE=ISO
4.500000e-02
*SPECIFIC HEAT
5.000000e+02
**
**
************************************** H I S T O R Y *************************************
**
*PREPRINT
**
**************************************** S T E P 1 ***************************************
*STEP,INC=100,NAME=Default Set
**
*STATIC
1, 1, 1e-05, 1
**
**
**
**
*END STEP
